Circuit: * C:\Users\Jerry Liu\Desktop\Solar\Voltage Sense Board\Simulation\Voltage Sense Diff Amp_LPF.asc

Direct Newton iteration failed to find .op point.  (Use ".option noopiter" to skip.)
Starting Gmin stepping
Gmin = 10
Gmin = 1.07374
Gmin = 0.115292
Gmin = 0.0123794
vernier = 0.5
vernier = 0.25
Gmin = 0.00422739
vernier = 0.125
vernier = 0.0625
vernier = 0.03125
vernier = 0.015625
vernier = 0.0078125
vernier = 0.00390625
vernier = 0.00195313
vernier = 0.000976563
vernier = 0.000488281
Gmin = 0
Gmin = 0
Gmin stepping failed

Starting source stepping with srcstepmethod=0
Source Step = 3.0303%
Source Step = 9.84848%
Source Step = 17.4242%
Source Step = 25%
Source Step = 32.5758%
Source Step = 40.1515%
vernier = 0.375
Source Step = 50.7576%
Source Step = 62.1212%
Source Step = 73.4848%
Source Step = 84.8485%
Source Step = 96.2121%
vernier = 0.5625
Source stepping succeeded in finding the operating point.


Date: Thu Feb 21 22:38:59 2019
Total elapsed time: 0.231 seconds.

tnom = 27
temp = 27
method = trap
totiter = 2375
traniter = 0
tranpoints = 0
accept = 0
rejected = 0
matrix size = 20
fillins = 12
solver = Alternate
Matrix Compiler1:     105 opcodes  0.6/0.5/[0.4]
Matrix Compiler2: 2.36 KB object code size  0.5/0.6/[0.3]

